Z2875748941
     RDKit          3D

 44 45  0  0  0  0  0  0  0  0999 V2000
  -14.9400   14.0190   22.3160 C   0  0  0  0  0  0  0  0  0  0  0  0
  -16.2450   14.2880   22.8610 O   0  0  0  0  0  0  0  0  0  0  0  0
  -16.9110   13.2000   23.3180 C   0  0  0  0  0  0  0  0  0  0  0  0
  -16.4190   11.8560   22.9330 C   0  0  0  0  0  0  0  0  0  0  0  0
  -18.0600   13.3120   24.1650 C   0  0  0  0  0  0  0  0  0  0  0  0
  -17.0910   10.7960   23.4360 C   0  0  0  0  0  0  0  0  0  0  0  0
  -18.7340   12.1850   24.6320 C   0  0  0  0  0  0  0  0  0  0  0  0
  -18.5440   14.5370   24.5640 O   0  0  0  0  0  0  0  0  0  0  0  0
  -18.2890   10.9150   24.3280 C   0  0  0  0  0  0  0  0  0  0  0  0
  -18.5220   14.7380   26.0120 C   0  0  0  0  0  0  0  0  0  0  0  0
  -19.9460   12.3780   25.4870 C   0  0  2  0  0  0  0  0  0  0  0  0
  -18.3250   13.4820   26.8900 C   0  0  0  0  0  0  0  0  0  0  0  0
  -19.4340   12.4740   26.8770 C   0  0  0  0  0  0  0  0  0  0  0  0
  -21.1890   11.6420   25.2020 N   0  0  0  0  0  0  0  0  0  0  0  0
  -22.4340   11.9880   25.9400 C   0  0  0  0  0  0  0  0  0  0  0  0
  -23.5610   11.6020   25.6440 O   0  0  0  0  0  0  0  0  0  0  0  0
  -22.2400   12.8350   27.0400 C   0  0  0  0  0  0  0  0  0  0  0  0
  -21.0050   13.2050   27.3470 C   0  0  0  0  0  0  0  0  0  0  0  0
  -23.2930   13.2670   27.7620 C   0  0  0  0  0  0  0  0  0  0  0  0
  -23.1810   14.1210   28.8770 C   0  0  0  0  0  0  0  0  0  0  0  0
  -24.7120   12.9100   27.4770 C   0  0  0  0  0  0  0  0  0  0  0  0
  -14.2570   14.8060   22.6590 H   0  0  0  0  0  0  0  0  0  0  0  0
  -14.9390   14.0460   21.2200 H   0  0  0  0  0  0  0  0  0  0  0  0
  -14.5510   13.0480   22.6290 H   0  0  0  0  0  0  0  0  0  0  0  0
  -15.5600   11.6870   22.2910 H   0  0  0  0  0  0  0  0  0  0  0  0
  -16.7490    9.8600   23.1860 H   0  0  0  0  0  0  0  0  0  0  0  0
  -18.7760   10.0220   24.7050 H   0  0  0  0  0  0  0  0  0  0  0  0
  -17.7120   15.4540   26.1970 H   0  0  0  0  0  0  0  0  0  0  0  0
  -19.4150   15.2640   26.3720 H   0  0  0  0  0  0  0  0  0  0  0  0
  -20.2090   13.3840   25.3110 H   0  0  0  0  0  0  0  0  0  0  0  0
  -18.1490   13.7910   27.9040 H   0  0  0  0  0  0  0  0  0  0  0  0
  -17.4540   12.9360   26.5880 H   0  0  0  0  0  0  0  0  0  0  0  0
  -18.9510   11.5270   27.1360 H   0  0  0  0  0  0  0  0  0  0  0  0
  -20.2150   12.6740   27.6170 H   0  0  0  0  0  0  0  0  0  0  0  0
  -21.3360   11.4230   24.2060 H   0  0  0  0  0  0  0  0  0  0  0  0
  -20.8430   13.1750   28.4260 H   0  0  0  0  0  0  0  0  0  0  0  0
  -20.2600   12.5440   26.9080 H   0  0  0  0  0  0  0  0  0  0  0  0
  -20.8230   14.2310   27.0090 H   0  0  0  0  0  0  0  0  0  0  0  0
  -22.7330   13.5740   29.7090 H   0  0  0  0  0  0  0  0  0  0  0  0
  -22.5610   14.9930   28.6930 H   0  0  0  0  0  0  0  0  0  0  0  0
  -24.1720   14.4660   29.1900 H   0  0  0  0  0  0  0  0  0  0  0  0
  -24.7690   11.9310   26.9960 H   0  0  0  0  0  0  0  0  0  0  0  0
  -25.2880   12.8750   28.4070 H   0  0  0  0  0  0  0  0  0  0  0  0
  -25.1990   13.6170   26.7990 H   0  0  0  0  0  0  0  0  0  0  0  0
  1  2  1  0
  2  3  1  0
  3  4  2  0
  3  5  1  0
  4  6  1  0
  5  7  2  0
  5  8  1  0
  6  9  2  0
  7  9  1  0
  8 10  1  0
  7 11  1  0
 10 12  1  0
 11 13  1  0
 12 13  1  0
 11 14  1  0
 14 15  1  0
 15 16  2  0
 15 17  1  0
 17 18  1  0
 17 19  2  3
 19 20  1  0
 19 21  1  0
  1 22  1  0
  1 23  1  0
  1 24  1  0
  4 25  1  0
  6 26  1  0
  9 27  1  0
 10 28  1  0
 10 29  1  0
 11 30  1  6
 12 31  1  0
 12 32  1  0
 13 33  1  0
 13 34  1  0
 14 35  1  0
 18 36  1  0
 18 37  1  0
 18 38  1  0
 20 39  1  0
 20 40  1  0
 20 41  1  0
 21 42  1  0
 21 43  1  0
 21 44  1  0
M  END
$$$$
Z2875748941
     RDKit          3D

 44 45  0  0  0  0  0  0  0  0999 V2000
  -14.9400   14.0190   22.3160 C   0  0  0  0  0  0  0  0  0  0  0  0
  -16.2450   14.2880   22.8610 O   0  0  0  0  0  0  0  0  0  0  0  0
  -16.9110   13.2000   23.3180 C   0  0  0  0  0  0  0  0  0  0  0  0
  -16.4190   11.8560   22.9330 C   0  0  0  0  0  0  0  0  0  0  0  0
  -18.0600   13.3120   24.1650 C   0  0  0  0  0  0  0  0  0  0  0  0
  -17.0910   10.7960   23.4360 C   0  0  0  0  0  0  0  0  0  0  0  0
  -18.7340   12.1850   24.6320 C   0  0  0  0  0  0  0  0  0  0  0  0
  -18.5440   14.5370   24.5640 O   0  0  0  0  0  0  0  0  0  0  0  0
  -18.2890   10.9150   24.3280 C   0  0  0  0  0  0  0  0  0  0  0  0
  -18.5220   14.7380   26.0120 C   0  0  0  0  0  0  0  0  0  0  0  0
  -19.9460   12.3780   25.4870 C   0  0  2  0  0  0  0  0  0  0  0  0
  -18.3250   13.4820   26.8900 C   0  0  0  0  0  0  0  0  0  0  0  0
  -19.4340   12.4740   26.8770 C   0  0  0  0  0  0  0  0  0  0  0  0
  -21.1890   11.6420   25.2020 N   0  0  0  0  0  0  0  0  0  0  0  0
  -22.4340   11.9880   25.9400 C   0  0  0  0  0  0  0  0  0  0  0  0
  -23.5610   11.6020   25.6440 O   0  0  0  0  0  0  0  0  0  0  0  0
  -22.2400   12.8350   27.0400 C   0  0  0  0  0  0  0  0  0  0  0  0
  -21.0050   13.2050   27.3470 C   0  0  0  0  0  0  0  0  0  0  0  0
  -23.2930   13.2670   27.7620 C   0  0  0  0  0  0  0  0  0  0  0  0
  -23.1810   14.1210   28.8770 C   0  0  0  0  0  0  0  0  0  0  0  0
  -24.7120   12.9100   27.4770 C   0  0  0  0  0  0  0  0  0  0  0  0
  -14.2570   14.8060   22.6590 H   0  0  0  0  0  0  0  0  0  0  0  0
  -14.9390   14.0460   21.2200 H   0  0  0  0  0  0  0  0  0  0  0  0
  -14.5510   13.0480   22.6290 H   0  0  0  0  0  0  0  0  0  0  0  0
  -15.5600   11.6870   22.2910 H   0  0  0  0  0  0  0  0  0  0  0  0
  -16.7490    9.8600   23.1860 H   0  0  0  0  0  0  0  0  0  0  0  0
  -18.7760   10.0220   24.7050 H   0  0  0  0  0  0  0  0  0  0  0  0
  -17.7120   15.4540   26.1970 H   0  0  0  0  0  0  0  0  0  0  0  0
  -19.4150   15.2640   26.3720 H   0  0  0  0  0  0  0  0  0  0  0  0
  -20.2090   13.3840   25.3110 H   0  0  0  0  0  0  0  0  0  0  0  0
  -18.1490   13.7910   27.9040 H   0  0  0  0  0  0  0  0  0  0  0  0
  -17.4540   12.9360   26.5880 H   0  0  0  0  0  0  0  0  0  0  0  0
  -18.9510   11.5270   27.1360 H   0  0  0  0  0  0  0  0  0  0  0  0
  -20.2150   12.6740   27.6170 H   0  0  0  0  0  0  0  0  0  0  0  0
  -21.3360   11.4230   24.2060 H   0  0  0  0  0  0  0  0  0  0  0  0
  -20.8430   13.1750   28.4260 H   0  0  0  0  0  0  0  0  0  0  0  0
  -20.2600   12.5440   26.9080 H   0  0  0  0  0  0  0  0  0  0  0  0
  -20.8230   14.2310   27.0090 H   0  0  0  0  0  0  0  0  0  0  0  0
  -22.7330   13.5740   29.7090 H   0  0  0  0  0  0  0  0  0  0  0  0
  -22.5610   14.9930   28.6930 H   0  0  0  0  0  0  0  0  0  0  0  0
  -24.1720   14.4660   29.1900 H   0  0  0  0  0  0  0  0  0  0  0  0
  -24.7690   11.9310   26.9960 H   0  0  0  0  0  0  0  0  0  0  0  0
  -25.2880   12.8750   28.4070 H   0  0  0  0  0  0  0  0  0  0  0  0
  -25.1990   13.6170   26.7990 H   0  0  0  0  0  0  0  0  0  0  0  0
  1  2  1  0
  2  3  1  0
  3  4  2  0
  3  5  1  0
  4  6  1  0
  5  7  2  0
  5  8  1  0
  6  9  2  0
  7  9  1  0
  8 10  1  0
  7 11  1  0
 10 12  1  0
 11 13  1  0
 12 13  1  0
 11 14  1  0
 14 15  1  0
 15 16  2  0
 15 17  1  0
 17 18  1  0
 17 19  2  3
 19 20  1  0
 19 21  1  0
  1 22  1  0
  1 23  1  0
  1 24  1  0
  4 25  1  0
  6 26  1  0
  9 27  1  0
 10 28  1  0
 10 29  1  0
 11 30  1  6
 12 31  1  0
 12 32  1  0
 13 33  1  0
 13 34  1  0
 14 35  1  0
 18 36  1  0
 18 37  1  0
 18 38  1  0
 20 39  1  0
 20 40  1  0
 20 41  1  0
 21 42  1  0
 21 43  1  0
 21 44  1  0
M  END
$$$$
Z2875748941
     RDKit          3D

 44 45  0  0  0  0  0  0  0  0999 V2000
  -14.9400   14.0190   22.3160 C   0  0  0  0  0  0  0  0  0  0  0  0
  -16.2450   14.2880   22.8610 O   0  0  0  0  0  0  0  0  0  0  0  0
  -16.9110   13.2000   23.3180 C   0  0  0  0  0  0  0  0  0  0  0  0
  -16.4190   11.8560   22.9330 C   0  0  0  0  0  0  0  0  0  0  0  0
  -18.0600   13.3120   24.1650 C   0  0  0  0  0  0  0  0  0  0  0  0
  -17.0910   10.7960   23.4360 C   0  0  0  0  0  0  0  0  0  0  0  0
  -18.7340   12.1850   24.6320 C   0  0  0  0  0  0  0  0  0  0  0  0
  -18.5440   14.5370   24.5640 O   0  0  0  0  0  0  0  0  0  0  0  0
  -18.2890   10.9150   24.3280 C   0  0  0  0  0  0  0  0  0  0  0  0
  -18.5220   14.7380   26.0120 C   0  0  0  0  0  0  0  0  0  0  0  0
  -19.9460   12.3780   25.4870 C   0  0  2  0  0  0  0  0  0  0  0  0
  -18.3250   13.4820   26.8900 C   0  0  0  0  0  0  0  0  0  0  0  0
  -19.4340   12.4740   26.8770 C   0  0  0  0  0  0  0  0  0  0  0  0
  -21.1890   11.6420   25.2020 N   0  0  0  0  0  0  0  0  0  0  0  0
  -22.4340   11.9880   25.9400 C   0  0  0  0  0  0  0  0  0  0  0  0
  -23.5610   11.6020   25.6440 O   0  0  0  0  0  0  0  0  0  0  0  0
  -22.2400   12.8350   27.0400 C   0  0  0  0  0  0  0  0  0  0  0  0
  -21.0050   13.2050   27.3470 C   0  0  0  0  0  0  0  0  0  0  0  0
  -23.2930   13.2670   27.7620 C   0  0  0  0  0  0  0  0  0  0  0  0
  -23.1810   14.1210   28.8770 C   0  0  0  0  0  0  0  0  0  0  0  0
  -24.7120   12.9100   27.4770 C   0  0  0  0  0  0  0  0  0  0  0  0
  -14.2570   14.8060   22.6590 H   0  0  0  0  0  0  0  0  0  0  0  0
  -14.9390   14.0460   21.2200 H   0  0  0  0  0  0  0  0  0  0  0  0
  -14.5510   13.0480   22.6290 H   0  0  0  0  0  0  0  0  0  0  0  0
  -15.5600   11.6870   22.2910 H   0  0  0  0  0  0  0  0  0  0  0  0
  -16.7490    9.8600   23.1860 H   0  0  0  0  0  0  0  0  0  0  0  0
  -18.7760   10.0220   24.7050 H   0  0  0  0  0  0  0  0  0  0  0  0
  -17.7120   15.4540   26.1970 H   0  0  0  0  0  0  0  0  0  0  0  0
  -19.4150   15.2640   26.3720 H   0  0  0  0  0  0  0  0  0  0  0  0
  -20.2090   13.3840   25.3110 H   0  0  0  0  0  0  0  0  0  0  0  0
  -18.1490   13.7910   27.9040 H   0  0  0  0  0  0  0  0  0  0  0  0
  -17.4540   12.9360   26.5880 H   0  0  0  0  0  0  0  0  0  0  0  0
  -18.9510   11.5270   27.1360 H   0  0  0  0  0  0  0  0  0  0  0  0
  -20.2150   12.6740   27.6170 H   0  0  0  0  0  0  0  0  0  0  0  0
  -21.3360   11.4230   24.2060 H   0  0  0  0  0  0  0  0  0  0  0  0
  -20.8430   13.1750   28.4260 H   0  0  0  0  0  0  0  0  0  0  0  0
  -20.2600   12.5440   26.9080 H   0  0  0  0  0  0  0  0  0  0  0  0
  -20.8230   14.2310   27.0090 H   0  0  0  0  0  0  0  0  0  0  0  0
  -22.7330   13.5740   29.7090 H   0  0  0  0  0  0  0  0  0  0  0  0
  -22.5610   14.9930   28.6930 H   0  0  0  0  0  0  0  0  0  0  0  0
  -24.1720   14.4660   29.1900 H   0  0  0  0  0  0  0  0  0  0  0  0
  -24.7690   11.9310   26.9960 H   0  0  0  0  0  0  0  0  0  0  0  0
  -25.2880   12.8750   28.4070 H   0  0  0  0  0  0  0  0  0  0  0  0
  -25.1990   13.6170   26.7990 H   0  0  0  0  0  0  0  0  0  0  0  0
  1  2  1  0
  2  3  1  0
  3  4  2  0
  3  5  1  0
  4  6  1  0
  5  7  2  0
  5  8  1  0
  6  9  2  0
  7  9  1  0
  8 10  1  0
  7 11  1  0
 10 12  1  0
 11 13  1  0
 12 13  1  0
 11 14  1  0
 14 15  1  0
 15 16  2  0
 15 17  1  0
 17 18  1  0
 17 19  2  3
 19 20  1  0
 19 21  1  0
  1 22  1  0
  1 23  1  0
  1 24  1  0
  4 25  1  0
  6 26  1  0
  9 27  1  0
 10 28  1  0
 10 29  1  0
 11 30  1  6
 12 31  1  0
 12 32  1  0
 13 33  1  0
 13 34  1  0
 14 35  1  0
 18 36  1  0
 18 37  1  0
 18 38  1  0
 20 39  1  0
 20 40  1  0
 20 41  1  0
 21 42  1  0
 21 43  1  0
 21 44  1  0
M  END
$$$$
Z2875748941
     RDKit          3D

 44 45  0  0  0  0  0  0  0  0999 V2000
  -14.9400   14.0190   22.3160 C   0  0  0  0  0  0  0  0  0  0  0  0
  -16.2450   14.2880   22.8610 O   0  0  0  0  0  0  0  0  0  0  0  0
  -16.9110   13.2000   23.3180 C   0  0  0  0  0  0  0  0  0  0  0  0
  -16.4190   11.8560   22.9330 C   0  0  0  0  0  0  0  0  0  0  0  0
  -18.0600   13.3120   24.1650 C   0  0  0  0  0  0  0  0  0  0  0  0
  -17.0910   10.7960   23.4360 C   0  0  0  0  0  0  0  0  0  0  0  0
  -18.7340   12.1850   24.6320 C   0  0  0  0  0  0  0  0  0  0  0  0
  -18.5440   14.5370   24.5640 O   0  0  0  0  0  0  0  0  0  0  0  0
  -18.2890   10.9150   24.3280 C   0  0  0  0  0  0  0  0  0  0  0  0
  -18.5220   14.7380   26.0120 C   0  0  0  0  0  0  0  0  0  0  0  0
  -19.9460   12.3780   25.4870 C   0  0  2  0  0  0  0  0  0  0  0  0
  -18.3250   13.4820   26.8900 C   0  0  0  0  0  0  0  0  0  0  0  0
  -19.4340   12.4740   26.8770 C   0  0  0  0  0  0  0  0  0  0  0  0
  -21.1890   11.6420   25.2020 N   0  0  0  0  0  0  0  0  0  0  0  0
  -22.4340   11.9880   25.9400 C   0  0  0  0  0  0  0  0  0  0  0  0
  -23.5610   11.6020   25.6440 O   0  0  0  0  0  0  0  0  0  0  0  0
  -22.2400   12.8350   27.0400 C   0  0  0  0  0  0  0  0  0  0  0  0
  -21.0050   13.2050   27.3470 C   0  0  0  0  0  0  0  0  0  0  0  0
  -23.2930   13.2670   27.7620 C   0  0  0  0  0  0  0  0  0  0  0  0
  -23.1810   14.1210   28.8770 C   0  0  0  0  0  0  0  0  0  0  0  0
  -24.7120   12.9100   27.4770 C   0  0  0  0  0  0  0  0  0  0  0  0
  -14.2570   14.8060   22.6590 H   0  0  0  0  0  0  0  0  0  0  0  0
  -14.9390   14.0460   21.2200 H   0  0  0  0  0  0  0  0  0  0  0  0
  -14.5510   13.0480   22.6290 H   0  0  0  0  0  0  0  0  0  0  0  0
  -15.5600   11.6870   22.2910 H   0  0  0  0  0  0  0  0  0  0  0  0
  -16.7490    9.8600   23.1860 H   0  0  0  0  0  0  0  0  0  0  0  0
  -18.7760   10.0220   24.7050 H   0  0  0  0  0  0  0  0  0  0  0  0
  -17.7120   15.4540   26.1970 H   0  0  0  0  0  0  0  0  0  0  0  0
  -19.4150   15.2640   26.3720 H   0  0  0  0  0  0  0  0  0  0  0  0
  -20.2090   13.3840   25.3110 H   0  0  0  0  0  0  0  0  0  0  0  0
  -18.1490   13.7910   27.9040 H   0  0  0  0  0  0  0  0  0  0  0  0
  -17.4540   12.9360   26.5880 H   0  0  0  0  0  0  0  0  0  0  0  0
  -18.9510   11.5270   27.1360 H   0  0  0  0  0  0  0  0  0  0  0  0
  -20.2150   12.6740   27.6170 H   0  0  0  0  0  0  0  0  0  0  0  0
  -21.3360   11.4230   24.2060 H   0  0  0  0  0  0  0  0  0  0  0  0
  -20.8430   13.1750   28.4260 H   0  0  0  0  0  0  0  0  0  0  0  0
  -20.2600   12.5440   26.9080 H   0  0  0  0  0  0  0  0  0  0  0  0
  -20.8230   14.2310   27.0090 H   0  0  0  0  0  0  0  0  0  0  0  0
  -22.7330   13.5740   29.7090 H   0  0  0  0  0  0  0  0  0  0  0  0
  -22.5610   14.9930   28.6930 H   0  0  0  0  0  0  0  0  0  0  0  0
  -24.1720   14.4660   29.1900 H   0  0  0  0  0  0  0  0  0  0  0  0
  -24.7690   11.9310   26.9960 H   0  0  0  0  0  0  0  0  0  0  0  0
  -25.2880   12.8750   28.4070 H   0  0  0  0  0  0  0  0  0  0  0  0
  -25.1990   13.6170   26.7990 H   0  0  0  0  0  0  0  0  0  0  0  0
  1  2  1  0
  2  3  1  0
  3  4  2  0
  3  5  1  0
  4  6  1  0
  5  7  2  0
  5  8  1  0
  6  9  2  0
  7  9  1  0
  8 10  1  0
  7 11  1  0
 10 12  1  0
 11 13  1  0
 12 13  1  0
 11 14  1  0
 14 15  1  0
 15 16  2  0
 15 17  1  0
 17 18  1  0
 17 19  2  3
 19 20  1  0
 19 21  1  0
  1 22  1  0
  1 23  1  0
  1 24  1  0
  4 25  1  0
  6 26  1  0
  9 27  1  0
 10 28  1  0
 10 29  1  0
 11 30  1  6
 12 31  1  0
 12 32  1  0
 13 33  1  0
 13 34  1  0
 14 35  1  0
 18 36  1  0
 18 37  1  0
 18 38  1  0
 20 39  1  0
 20 40  1  0
 20 41  1  0
 21 42  1  0
 21 43  1  0
 21 44  1  0
M  END
$$$$
Z2875748941
     RDKit          3D

 44 45  0  0  0  0  0  0  0  0999 V2000
  -14.9400   14.0190   22.3160 C   0  0  0  0  0  0  0  0  0  0  0  0
  -16.2450   14.2880   22.8610 O   0  0  0  0  0  0  0  0  0  0  0  0
  -16.9110   13.2000   23.3180 C   0  0  0  0  0  0  0  0  0  0  0  0
  -16.4190   11.8560   22.9330 C   0  0  0  0  0  0  0  0  0  0  0  0
  -18.0600   13.3120   24.1650 C   0  0  0  0  0  0  0  0  0  0  0  0
  -17.0910   10.7960   23.4360 C   0  0  0  0  0  0  0  0  0  0  0  0
  -18.7340   12.1850   24.6320 C   0  0  0  0  0  0  0  0  0  0  0  0
  -18.5440   14.5370   24.5640 O   0  0  0  0  0  0  0  0  0  0  0  0
  -18.2890   10.9150   24.3280 C   0  0  0  0  0  0  0  0  0  0  0  0
  -18.5220   14.7380   26.0120 C   0  0  0  0  0  0  0  0  0  0  0  0
  -19.9460   12.3780   25.4870 C   0  0  2  0  0  0  0  0  0  0  0  0
  -18.3250   13.4820   26.8900 C   0  0  0  0  0  0  0  0  0  0  0  0
  -19.4340   12.4740   26.8770 C   0  0  0  0  0  0  0  0  0  0  0  0
  -21.1890   11.6420   25.2020 N   0  0  0  0  0  0  0  0  0  0  0  0
  -22.4340   11.9880   25.9400 C   0  0  0  0  0  0  0  0  0  0  0  0
  -23.5610   11.6020   25.6440 O   0  0  0  0  0  0  0  0  0  0  0  0
  -22.2400   12.8350   27.0400 C   0  0  0  0  0  0  0  0  0  0  0  0
  -21.0050   13.2050   27.3470 C   0  0  0  0  0  0  0  0  0  0  0  0
  -23.2930   13.2670   27.7620 C   0  0  0  0  0  0  0  0  0  0  0  0
  -23.1810   14.1210   28.8770 C   0  0  0  0  0  0  0  0  0  0  0  0
  -24.7120   12.9100   27.4770 C   0  0  0  0  0  0  0  0  0  0  0  0
  -14.2570   14.8060   22.6590 H   0  0  0  0  0  0  0  0  0  0  0  0
  -14.9390   14.0460   21.2200 H   0  0  0  0  0  0  0  0  0  0  0  0
  -14.5510   13.0480   22.6290 H   0  0  0  0  0  0  0  0  0  0  0  0
  -15.5600   11.6870   22.2910 H   0  0  0  0  0  0  0  0  0  0  0  0
  -16.7490    9.8600   23.1860 H   0  0  0  0  0  0  0  0  0  0  0  0
  -18.7760   10.0220   24.7050 H   0  0  0  0  0  0  0  0  0  0  0  0
  -17.7120   15.4540   26.1970 H   0  0  0  0  0  0  0  0  0  0  0  0
  -19.4150   15.2640   26.3720 H   0  0  0  0  0  0  0  0  0  0  0  0
  -20.2090   13.3840   25.3110 H   0  0  0  0  0  0  0  0  0  0  0  0
  -18.1490   13.7910   27.9040 H   0  0  0  0  0  0  0  0  0  0  0  0
  -17.4540   12.9360   26.5880 H   0  0  0  0  0  0  0  0  0  0  0  0
  -18.9510   11.5270   27.1360 H   0  0  0  0  0  0  0  0  0  0  0  0
  -20.2150   12.6740   27.6170 H   0  0  0  0  0  0  0  0  0  0  0  0
  -21.3360   11.4230   24.2060 H   0  0  0  0  0  0  0  0  0  0  0  0
  -20.8430   13.1750   28.4260 H   0  0  0  0  0  0  0  0  0  0  0  0
  -20.2600   12.5440   26.9080 H   0  0  0  0  0  0  0  0  0  0  0  0
  -20.8230   14.2310   27.0090 H   0  0  0  0  0  0  0  0  0  0  0  0
  -22.7330   13.5740   29.7090 H   0  0  0  0  0  0  0  0  0  0  0  0
  -22.5610   14.9930   28.6930 H   0  0  0  0  0  0  0  0  0  0  0  0
  -24.1720   14.4660   29.1900 H   0  0  0  0  0  0  0  0  0  0  0  0
  -24.7690   11.9310   26.9960 H   0  0  0  0  0  0  0  0  0  0  0  0
  -25.2880   12.8750   28.4070 H   0  0  0  0  0  0  0  0  0  0  0  0
  -25.1990   13.6170   26.7990 H   0  0  0  0  0  0  0  0  0  0  0  0
  1  2  1  0
  2  3  1  0
  3  4  2  0
  3  5  1  0
  4  6  1  0
  5  7  2  0
  5  8  1  0
  6  9  2  0
  7  9  1  0
  8 10  1  0
  7 11  1  0
 10 12  1  0
 11 13  1  0
 12 13  1  0
 11 14  1  0
 14 15  1  0
 15 16  2  0
 15 17  1  0
 17 18  1  0
 17 19  2  3
 19 20  1  0
 19 21  1  0
  1 22  1  0
  1 23  1  0
  1 24  1  0
  4 25  1  0
  6 26  1  0
  9 27  1  0
 10 28  1  0
 10 29  1  0
 11 30  1  6
 12 31  1  0
 12 32  1  0
 13 33  1  0
 13 34  1  0
 14 35  1  0
 18 36  1  0
 18 37  1  0
 18 38  1  0
 20 39  1  0
 20 40  1  0
 20 41  1  0
 21 42  1  0
 21 43  1  0
 21 44  1  0
M  END
$$$$
Z2875748941
     RDKit          3D

 44 45  0  0  0  0  0  0  0  0999 V2000
  -14.9400   14.0190   22.3160 C   0  0  0  0  0  0  0  0  0  0  0  0
  -16.2450   14.2880   22.8610 O   0  0  0  0  0  0  0  0  0  0  0  0
  -16.9110   13.2000   23.3180 C   0  0  0  0  0  0  0  0  0  0  0  0
  -16.4190   11.8560   22.9330 C   0  0  0  0  0  0  0  0  0  0  0  0
  -18.0600   13.3120   24.1650 C   0  0  0  0  0  0  0  0  0  0  0  0
  -17.0910   10.7960   23.4360 C   0  0  0  0  0  0  0  0  0  0  0  0
  -18.7340   12.1850   24.6320 C   0  0  0  0  0  0  0  0  0  0  0  0
  -18.5440   14.5370   24.5640 O   0  0  0  0  0  0  0  0  0  0  0  0
  -18.2890   10.9150   24.3280 C   0  0  0  0  0  0  0  0  0  0  0  0
  -18.5220   14.7380   26.0120 C   0  0  0  0  0  0  0  0  0  0  0  0
  -19.9460   12.3780   25.4870 C   0  0  2  0  0  0  0  0  0  0  0  0
  -18.3250   13.4820   26.8900 C   0  0  0  0  0  0  0  0  0  0  0  0
  -19.4340   12.4740   26.8770 C   0  0  0  0  0  0  0  0  0  0  0  0
  -21.1890   11.6420   25.2020 N   0  0  0  0  0  0  0  0  0  0  0  0
  -22.4340   11.9880   25.9400 C   0  0  0  0  0  0  0  0  0  0  0  0
  -23.5610   11.6020   25.6440 O   0  0  0  0  0  0  0  0  0  0  0  0
  -22.2400   12.8350   27.0400 C   0  0  0  0  0  0  0  0  0  0  0  0
  -21.0050   13.2050   27.3470 C   0  0  0  0  0  0  0  0  0  0  0  0
  -23.2930   13.2670   27.7620 C   0  0  0  0  0  0  0  0  0  0  0  0
  -23.1810   14.1210   28.8770 C   0  0  0  0  0  0  0  0  0  0  0  0
  -24.7120   12.9100   27.4770 C   0  0  0  0  0  0  0  0  0  0  0  0
  -14.2570   14.8060   22.6590 H   0  0  0  0  0  0  0  0  0  0  0  0
  -14.9390   14.0460   21.2200 H   0  0  0  0  0  0  0  0  0  0  0  0
  -14.5510   13.0480   22.6290 H   0  0  0  0  0  0  0  0  0  0  0  0
  -15.5600   11.6870   22.2910 H   0  0  0  0  0  0  0  0  0  0  0  0
  -16.7490    9.8600   23.1860 H   0  0  0  0  0  0  0  0  0  0  0  0
  -18.7760   10.0220   24.7050 H   0  0  0  0  0  0  0  0  0  0  0  0
  -17.7120   15.4540   26.1970 H   0  0  0  0  0  0  0  0  0  0  0  0
  -19.4150   15.2640   26.3720 H   0  0  0  0  0  0  0  0  0  0  0  0
  -20.2090   13.3840   25.3110 H   0  0  0  0  0  0  0  0  0  0  0  0
  -18.1490   13.7910   27.9040 H   0  0  0  0  0  0  0  0  0  0  0  0
  -17.4540   12.9360   26.5880 H   0  0  0  0  0  0  0  0  0  0  0  0
  -18.9510   11.5270   27.1360 H   0  0  0  0  0  0  0  0  0  0  0  0
  -20.2150   12.6740   27.6170 H   0  0  0  0  0  0  0  0  0  0  0  0
  -21.3360   11.4230   24.2060 H   0  0  0  0  0  0  0  0  0  0  0  0
  -20.8430   13.1750   28.4260 H   0  0  0  0  0  0  0  0  0  0  0  0
  -20.2600   12.5440   26.9080 H   0  0  0  0  0  0  0  0  0  0  0  0
  -20.8230   14.2310   27.0090 H   0  0  0  0  0  0  0  0  0  0  0  0
  -22.7330   13.5740   29.7090 H   0  0  0  0  0  0  0  0  0  0  0  0
  -22.5610   14.9930   28.6930 H   0  0  0  0  0  0  0  0  0  0  0  0
  -24.1720   14.4660   29.1900 H   0  0  0  0  0  0  0  0  0  0  0  0
  -24.7690   11.9310   26.9960 H   0  0  0  0  0  0  0  0  0  0  0  0
  -25.2880   12.8750   28.4070 H   0  0  0  0  0  0  0  0  0  0  0  0
  -25.1990   13.6170   26.7990 H   0  0  0  0  0  0  0  0  0  0  0  0
  1  2  1  0
  2  3  1  0
  3  4  2  0
  3  5  1  0
  4  6  1  0
  5  7  2  0
  5  8  1  0
  6  9  2  0
  7  9  1  0
  8 10  1  0
  7 11  1  0
 10 12  1  0
 11 13  1  0
 12 13  1  0
 11 14  1  0
 14 15  1  0
 15 16  2  0
 15 17  1  0
 17 18  1  0
 17 19  2  3
 19 20  1  0
 19 21  1  0
  1 22  1  0
  1 23  1  0
  1 24  1  0
  4 25  1  0
  6 26  1  0
  9 27  1  0
 10 28  1  0
 10 29  1  0
 11 30  1  6
 12 31  1  0
 12 32  1  0
 13 33  1  0
 13 34  1  0
 14 35  1  0
 18 36  1  0
 18 37  1  0
 18 38  1  0
 20 39  1  0
 20 40  1  0
 20 41  1  0
 21 42  1  0
 21 43  1  0
 21 44  1  0
M  END
$$$$
Z2875748941
     RDKit          3D

 44 45  0  0  0  0  0  0  0  0999 V2000
  -14.9400   14.0190   22.3160 C   0  0  0  0  0  0  0  0  0  0  0  0
  -16.2450   14.2880   22.8610 O   0  0  0  0  0  0  0  0  0  0  0  0
  -16.9110   13.2000   23.3180 C   0  0  0  0  0  0  0  0  0  0  0  0
  -16.4190   11.8560   22.9330 C   0  0  0  0  0  0  0  0  0  0  0  0
  -18.0600   13.3120   24.1650 C   0  0  0  0  0  0  0  0  0  0  0  0
  -17.0910   10.7960   23.4360 C   0  0  0  0  0  0  0  0  0  0  0  0
  -18.7340   12.1850   24.6320 C   0  0  0  0  0  0  0  0  0  0  0  0
  -18.5440   14.5370   24.5640 O   0  0  0  0  0  0  0  0  0  0  0  0
  -18.2890   10.9150   24.3280 C   0  0  0  0  0  0  0  0  0  0  0  0
  -18.5220   14.7380   26.0120 C   0  0  0  0  0  0  0  0  0  0  0  0
  -19.9460   12.3780   25.4870 C   0  0  2  0  0  0  0  0  0  0  0  0
  -18.3250   13.4820   26.8900 C   0  0  0  0  0  0  0  0  0  0  0  0
  -19.4340   12.4740   26.8770 C   0  0  0  0  0  0  0  0  0  0  0  0
  -21.1890   11.6420   25.2020 N   0  0  0  0  0  0  0  0  0  0  0  0
  -22.4340   11.9880   25.9400 C   0  0  0  0  0  0  0  0  0  0  0  0
  -23.5610   11.6020   25.6440 O   0  0  0  0  0  0  0  0  0  0  0  0
  -22.2400   12.8350   27.0400 C   0  0  0  0  0  0  0  0  0  0  0  0
  -21.0050   13.2050   27.3470 C   0  0  0  0  0  0  0  0  0  0  0  0
  -23.2930   13.2670   27.7620 C   0  0  0  0  0  0  0  0  0  0  0  0
  -23.1810   14.1210   28.8770 C   0  0  0  0  0  0  0  0  0  0  0  0
  -24.7120   12.9100   27.4770 C   0  0  0  0  0  0  0  0  0  0  0  0
  -14.2570   14.8060   22.6590 H   0  0  0  0  0  0  0  0  0  0  0  0
  -14.9390   14.0460   21.2200 H   0  0  0  0  0  0  0  0  0  0  0  0
  -14.5510   13.0480   22.6290 H   0  0  0  0  0  0  0  0  0  0  0  0
  -15.5600   11.6870   22.2910 H   0  0  0  0  0  0  0  0  0  0  0  0
  -16.7490    9.8600   23.1860 H   0  0  0  0  0  0  0  0  0  0  0  0
  -18.7760   10.0220   24.7050 H   0  0  0  0  0  0  0  0  0  0  0  0
  -17.7120   15.4540   26.1970 H   0  0  0  0  0  0  0  0  0  0  0  0
  -19.4150   15.2640   26.3720 H   0  0  0  0  0  0  0  0  0  0  0  0
  -20.2090   13.3840   25.3110 H   0  0  0  0  0  0  0  0  0  0  0  0
  -18.1490   13.7910   27.9040 H   0  0  0  0  0  0  0  0  0  0  0  0
  -17.4540   12.9360   26.5880 H   0  0  0  0  0  0  0  0  0  0  0  0
  -18.9510   11.5270   27.1360 H   0  0  0  0  0  0  0  0  0  0  0  0
  -20.2150   12.6740   27.6170 H   0  0  0  0  0  0  0  0  0  0  0  0
  -21.3360   11.4230   24.2060 H   0  0  0  0  0  0  0  0  0  0  0  0
  -20.8430   13.1750   28.4260 H   0  0  0  0  0  0  0  0  0  0  0  0
  -20.2600   12.5440   26.9080 H   0  0  0  0  0  0  0  0  0  0  0  0
  -20.8230   14.2310   27.0090 H   0  0  0  0  0  0  0  0  0  0  0  0
  -22.7330   13.5740   29.7090 H   0  0  0  0  0  0  0  0  0  0  0  0
  -22.5610   14.9930   28.6930 H   0  0  0  0  0  0  0  0  0  0  0  0
  -24.1720   14.4660   29.1900 H   0  0  0  0  0  0  0  0  0  0  0  0
  -24.7690   11.9310   26.9960 H   0  0  0  0  0  0  0  0  0  0  0  0
  -25.2880   12.8750   28.4070 H   0  0  0  0  0  0  0  0  0  0  0  0
  -25.1990   13.6170   26.7990 H   0  0  0  0  0  0  0  0  0  0  0  0
  1  2  1  0
  2  3  1  0
  3  4  2  0
  3  5  1  0
  4  6  1  0
  5  7  2  0
  5  8  1  0
  6  9  2  0
  7  9  1  0
  8 10  1  0
  7 11  1  0
 10 12  1  0
 11 13  1  0
 12 13  1  0
 11 14  1  0
 14 15  1  0
 15 16  2  0
 15 17  1  0
 17 18  1  0
 17 19  2  3
 19 20  1  0
 19 21  1  0
  1 22  1  0
  1 23  1  0
  1 24  1  0
  4 25  1  0
  6 26  1  0
  9 27  1  0
 10 28  1  0
 10 29  1  0
 11 30  1  6
 12 31  1  0
 12 32  1  0
 13 33  1  0
 13 34  1  0
 14 35  1  0
 18 36  1  0
 18 37  1  0
 18 38  1  0
 20 39  1  0
 20 40  1  0
 20 41  1  0
 21 42  1  0
 21 43  1  0
 21 44  1  0
M  END
$$$$
Z2875748941
     RDKit          3D

 44 45  0  0  0  0  0  0  0  0999 V2000
  -14.9400   14.0190   22.3160 C   0  0  0  0  0  0  0  0  0  0  0  0
  -16.2450   14.2880   22.8610 O   0  0  0  0  0  0  0  0  0  0  0  0
  -16.9110   13.2000   23.3180 C   0  0  0  0  0  0  0  0  0  0  0  0
  -16.4190   11.8560   22.9330 C   0  0  0  0  0  0  0  0  0  0  0  0
  -18.0600   13.3120   24.1650 C   0  0  0  0  0  0  0  0  0  0  0  0
  -17.0910   10.7960   23.4360 C   0  0  0  0  0  0  0  0  0  0  0  0
  -18.7340   12.1850   24.6320 C   0  0  0  0  0  0  0  0  0  0  0  0
  -18.5440   14.5370   24.5640 O   0  0  0  0  0  0  0  0  0  0  0  0
  -18.2890   10.9150   24.3280 C   0  0  0  0  0  0  0  0  0  0  0  0
  -18.5220   14.7380   26.0120 C   0  0  0  0  0  0  0  0  0  0  0  0
  -19.9460   12.3780   25.4870 C   0  0  2  0  0  0  0  0  0  0  0  0
  -18.3250   13.4820   26.8900 C   0  0  0  0  0  0  0  0  0  0  0  0
  -19.4340   12.4740   26.8770 C   0  0  0  0  0  0  0  0  0  0  0  0
  -21.1890   11.6420   25.2020 N   0  0  0  0  0  0  0  0  0  0  0  0
  -22.4340   11.9880   25.9400 C   0  0  0  0  0  0  0  0  0  0  0  0
  -23.5610   11.6020   25.6440 O   0  0  0  0  0  0  0  0  0  0  0  0
  -22.2400   12.8350   27.0400 C   0  0  0  0  0  0  0  0  0  0  0  0
  -21.0050   13.2050   27.3470 C   0  0  0  0  0  0  0  0  0  0  0  0
  -23.2930   13.2670   27.7620 C   0  0  0  0  0  0  0  0  0  0  0  0
  -23.1810   14.1210   28.8770 C   0  0  0  0  0  0  0  0  0  0  0  0
  -24.7120   12.9100   27.4770 C   0  0  0  0  0  0  0  0  0  0  0  0
  -14.2570   14.8060   22.6590 H   0  0  0  0  0  0  0  0  0  0  0  0
  -14.9390   14.0460   21.2200 H   0  0  0  0  0  0  0  0  0  0  0  0
  -14.5510   13.0480   22.6290 H   0  0  0  0  0  0  0  0  0  0  0  0
  -15.5600   11.6870   22.2910 H   0  0  0  0  0  0  0  0  0  0  0  0
  -16.7490    9.8600   23.1860 H   0  0  0  0  0  0  0  0  0  0  0  0
  -18.7760   10.0220   24.7050 H   0  0  0  0  0  0  0  0  0  0  0  0
  -17.7120   15.4540   26.1970 H   0  0  0  0  0  0  0  0  0  0  0  0
  -19.4150   15.2640   26.3720 H   0  0  0  0  0  0  0  0  0  0  0  0
  -20.2090   13.3840   25.3110 H   0  0  0  0  0  0  0  0  0  0  0  0
  -18.1490   13.7910   27.9040 H   0  0  0  0  0  0  0  0  0  0  0  0
  -17.4540   12.9360   26.5880 H   0  0  0  0  0  0  0  0  0  0  0  0
  -18.9510   11.5270   27.1360 H   0  0  0  0  0  0  0  0  0  0  0  0
  -20.2150   12.6740   27.6170 H   0  0  0  0  0  0  0  0  0  0  0  0
  -21.3360   11.4230   24.2060 H   0  0  0  0  0  0  0  0  0  0  0  0
  -20.8430   13.1750   28.4260 H   0  0  0  0  0  0  0  0  0  0  0  0
  -20.2600   12.5440   26.9080 H   0  0  0  0  0  0  0  0  0  0  0  0
  -20.8230   14.2310   27.0090 H   0  0  0  0  0  0  0  0  0  0  0  0
  -22.7330   13.5740   29.7090 H   0  0  0  0  0  0  0  0  0  0  0  0
  -22.5610   14.9930   28.6930 H   0  0  0  0  0  0  0  0  0  0  0  0
  -24.1720   14.4660   29.1900 H   0  0  0  0  0  0  0  0  0  0  0  0
  -24.7690   11.9310   26.9960 H   0  0  0  0  0  0  0  0  0  0  0  0
  -25.2880   12.8750   28.4070 H   0  0  0  0  0  0  0  0  0  0  0  0
  -25.1990   13.6170   26.7990 H   0  0  0  0  0  0  0  0  0  0  0  0
  1  2  1  0
  2  3  1  0
  3  4  2  0
  3  5  1  0
  4  6  1  0
  5  7  2  0
  5  8  1  0
  6  9  2  0
  7  9  1  0
  8 10  1  0
  7 11  1  0
 10 12  1  0
 11 13  1  0
 12 13  1  0
 11 14  1  0
 14 15  1  0
 15 16  2  0
 15 17  1  0
 17 18  1  0
 17 19  2  3
 19 20  1  0
 19 21  1  0
  1 22  1  0
  1 23  1  0
  1 24  1  0
  4 25  1  0
  6 26  1  0
  9 27  1  0
 10 28  1  0
 10 29  1  0
 11 30  1  6
 12 31  1  0
 12 32  1  0
 13 33  1  0
 13 34  1  0
 14 35  1  0
 18 36  1  0
 18 37  1  0
 18 38  1  0
 20 39  1  0
 20 40  1  0
 20 41  1  0
 21 42  1  0
 21 43  1  0
 21 44  1  0
M  END
$$$$
