Z1741815525
     RDKit          3D

 32 33  0  0  0  0  0  0  0  0999 V2000
  -23.1170   12.8730   28.7480 C   0  0  0  0  0  0  0  0  0  0  0  0
  -22.7200   12.5400   27.5160 C   0  0  0  0  0  0  0  0  0  0  0  0
  -23.6050   11.9290   26.5210 C   0  0  0  0  0  0  0  0  0  0  0  0
  -21.3940   12.7580   27.0720 C   0  0  0  0  0  0  0  0  0  0  0  0
  -23.1700   11.5970   25.2740 C   0  0  0  0  0  0  0  0  0  0  0  0
  -20.9240   12.4220   25.7800 C   0  0  0  0  0  0  0  0  0  0  0  0
  -20.4810   13.3310   27.9250 C   0  0  0  0  0  0  0  0  0  0  0  0
  -21.7440   11.8330   24.8170 C   0  0  0  0  0  0  0  0  0  0  0  0
  -19.0540   13.5990   27.5020 C   0  0  0  0  0  0  0  0  0  0  0  0
  -19.6060   12.6940   25.4420 N   0  0  0  0  0  0  0  0  0  0  0  0
  -18.6540   12.6040   26.4970 C   0  0  0  0  0  0  0  0  0  0  0  0
  -19.0490   12.3520   24.2270 C   0  0  0  0  0  0  0  0  0  0  0  0
  -18.1380   11.1400   24.4130 C   0  0  0  0  0  0  0  0  0  0  0  0
  -17.3780   10.7540   23.2290 N   0  0  0  0  0  0  0  0  0  0  0  0
  -22.5910   13.7050   29.2040 H   0  0  0  0  0  0  0  0  0  0  0  0
  -23.2180   12.0370   29.4320 H   0  0  0  0  0  0  0  0  0  0  0  0
  -24.1520   13.2170   28.6430 H   0  0  0  0  0  0  0  0  0  0  0  0
  -24.6250   11.7770   26.8880 H   0  0  0  0  0  0  0  0  0  0  0  0
  -23.8520   11.1570   24.5830 H   0  0  0  0  0  0  0  0  0  0  0  0
  -20.9160   14.2610   28.2580 H   0  0  0  0  0  0  0  0  0  0  0  0
  -20.4020   12.7090   28.8020 H   0  0  0  0  0  0  0  0  0  0  0  0
  -21.4350   11.5680   23.8390 H   0  0  0  0  0  0  0  0  0  0  0  0
  -18.3960   13.4780   28.3500 H   0  0  0  0  0  0  0  0  0  0  0  0
  -18.9380   14.6210   27.1130 H   0  0  0  0  0  0  0  0  0  0  0  0
  -18.6930   11.6040   26.9450 H   0  0  0  0  0  0  0  0  0  0  0  0
  -17.6830   12.6970   26.0690 H   0  0  0  0  0  0  0  0  0  0  0  0
  -18.4920   13.1890   23.7940 H   0  0  0  0  0  0  0  0  0  0  0  0
  -19.8420   12.1370   23.5080 H   0  0  0  0  0  0  0  0  0  0  0  0
  -17.4260   11.4050   25.1740 H   0  0  0  0  0  0  0  0  0  0  0  0
  -18.6860   10.2730   24.7910 H   0  0  0  0  0  0  0  0  0  0  0  0
  -16.7290   11.5000   22.9820 H   0  0  0  0  0  0  0  0  0  0  0  0
  -18.0160   10.6530   22.4410 H   0  0  0  0  0  0  0  0  0  0  0  0
  1  2  1  0
  2  3  2  0
  2  4  1  0
  3  5  1  0
  4  6  2  0
  4  7  1  0
  5  8  2  0
  6  8  1  0
  7  9  1  0
  6 10  1  0
  9 11  1  0
 10 11  1  0
 10 12  1  0
 12 13  1  0
 13 14  1  0
  1 15  1  0
  1 16  1  0
  1 17  1  0
  3 18  1  0
  5 19  1  0
  7 20  1  0
  7 21  1  0
  8 22  1  0
  9 23  1  0
  9 24  1  0
 11 25  1  0
 11 26  1  0
 12 27  1  0
 12 28  1  0
 13 29  1  0
 13 30  1  0
 14 31  1  0
 14 32  1  0
M  END
$$$$
PV-004837860770
     RDKit          3D

 28 29  0  0  0  0  0  0  0  0999 V2000
  -18.3780   14.8860   25.0900 C   0  0  0  0  0  0  0  0  0  0  0  0
  -18.3390   14.3780   26.3310 C   0  0  0  0  0  0  0  0  0  0  0  0
  -18.6720   12.9660   26.6640 C   0  0  0  0  0  0  0  0  0  0  0  0
  -19.9470   12.7240   26.0410 N   0  0  0  0  0  0  0  0  0  0  0  0
  -20.1570   11.6380   25.1120 C   0  0  0  0  0  0  0  0  0  0  0  0
  -21.1520   12.9170   26.7040 C   0  0  0  0  0  0  0  0  0  0  0  0
  -21.6520   11.2500   25.1410 C   0  0  0  0  0  0  0  0  0  0  0  0
  -22.1710   12.1040   26.2270 C   0  0  0  0  0  0  0  0  0  0  0  0
  -21.4000   13.7880   27.7110 C   0  0  0  0  0  0  0  0  0  0  0  0
  -23.4510   12.1490   26.7410 C   0  0  0  0  0  0  0  0  0  0  0  0
  -22.6680   13.8610   28.2560 C   0  0  0  0  0  0  0  0  0  0  0  0
  -23.6960   13.0520   27.7800 C   0  0  0  0  0  0  0  0  0  0  0  0
  -25.0340   13.1830   28.4020 C   0  0  0  0  0  0  0  0  0  0  0  0
  -18.1270   15.9220   24.9240 H   0  0  0  0  0  0  0  0  0  0  0  0
  -18.6580   14.2870   24.2270 H   0  0  0  0  0  0  0  0  0  0  0  0
  -18.0520   15.0200   27.1570 H   0  0  0  0  0  0  0  0  0  0  0  0
  -18.6780   12.7640   27.7440 H   0  0  0  0  0  0  0  0  0  0  0  0
  -17.9120   12.3190   26.2140 H   0  0  0  0  0  0  0  0  0  0  0  0
  -19.8480   11.9430   24.1070 H   0  0  0  0  0  0  0  0  0  0  0  0
  -19.5390   10.7780   25.4050 H   0  0  0  0  0  0  0  0  0  0  0  0
  -22.1400   11.4470   24.1850 H   0  0  0  0  0  0  0  0  0  0  0  0
  -21.7750   10.2000   25.4150 H   0  0  0  0  0  0  0  0  0  0  0  0
  -20.6180   14.4200   28.0800 H   0  0  0  0  0  0  0  0  0  0  0  0
  -24.2340   11.5080   26.3480 H   0  0  0  0  0  0  0  0  0  0  0  0
  -22.8530   14.5660   29.0640 H   0  0  0  0  0  0  0  0  0  0  0  0
  -25.6940   12.4580   27.9620 H   0  0  0  0  0  0  0  0  0  0  0  0
  -24.9860   13.0080   29.4830 H   0  0  0  0  0  0  0  0  0  0  0  0
  -25.4430   14.1860   28.2450 H   0  0  0  0  0  0  0  0  0  0  0  0
  1  2  2  3
  2  3  1  0
  3  4  1  0
  4  5  1  0
  4  6  1  0
  5  7  1  0
  6  8  2  0
  7  8  1  0
  6  9  1  0
  8 10  1  0
  9 11  2  0
 10 12  2  0
 11 12  1  0
 12 13  1  0
  1 14  1  0
  1 15  1  0
  2 16  1  0
  3 17  1  0
  3 18  1  0
  5 19  1  0
  5 20  1  0
  7 21  1  0
  7 22  1  0
  9 23  1  0
 10 24  1  0
 11 25  1  0
 13 26  1  0
 13 27  1  0
 13 28  1  0
M  END
$$$$
Z4151362389
     RDKit          3D

 33 34  0  0  0  0  0  0  0  0999 V2000
  -24.8630   13.2050   28.2500 C   0  0  0  0  0  0  0  0  0  0  0  0
  -23.9950   12.7650   28.9460 C   0  0  2  0  0  0  0  0  0  0  0  0
  -23.2220   11.9940   29.9300 C   0  0  0  0  0  0  0  0  0  0  0  0
  -23.7620   14.1180   29.6500 C   0  0  0  0  0  0  0  0  0  0  0  0
  -23.0020   12.5470   27.7880 C   0  0  0  0  0  0  0  0  0  0  0  0
  -21.6440   12.8870   27.8950 C   0  0  0  0  0  0  0  0  0  0  0  0
  -23.4430   11.9770   26.5320 C   0  0  0  0  0  0  0  0  0  0  0  0
  -20.7010   12.7150   26.8840 N   0  0  0  0  0  0  0  0  0  0  0  0
  -22.4380   11.7540   25.4270 C   0  0  0  0  0  0  0  0  0  0  0  0
  -19.3000   12.9090   27.2060 C   0  0  0  0  0  0  0  0  0  0  0  0
  -20.9900   12.1370   25.6490 C   0  0  0  0  0  0  0  0  0  0  0  0
  -18.8650   14.1360   26.4930 C   0  0  0  0  0  0  0  0  0  0  0  0
  -20.1760   11.9340   24.7510 O   0  0  0  0  0  0  0  0  0  0  0  0
  -18.4650   14.0240   25.2010 C   0  0  0  0  0  0  0  0  0  0  0  0
  -18.8070   15.4090   26.9590 O   0  0  0  0  0  0  0  0  0  0  0  0
  -18.1090   15.2630   24.7610 N   0  0  0  0  0  0  0  0  0  0  0  0
  -18.3140   16.0650   25.7870 C   0  0  0  0  0  0  0  0  0  0  0  0
  -25.3950   13.8570   27.5960 H   0  0  0  0  0  0  0  0  0  0  0  0
  -25.6820   13.0820   28.9670 H   0  0  0  0  0  0  0  0  0  0  0  0
  -25.0000   12.3510   27.5880 H   0  0  0  0  0  0  0  0  0  0  0  0
  -22.3730   12.4520   30.4100 H   0  0  0  0  0  0  0  0  0  0  0  0
  -22.8360   11.0820   29.4560 H   0  0  0  0  0  0  0  0  0  0  0  0
  -23.8760   11.6690   30.7450 H   0  0  0  0  0  0  0  0  0  0  0  0
  -22.7440   14.4710   29.4840 H   0  0  0  0  0  0  0  0  0  0  0  0
  -23.9020   14.0400   30.7330 H   0  0  0  0  0  0  0  0  0  0  0  0
  -24.4370   14.8940   29.2700 H   0  0  0  0  0  0  0  0  0  0  0  0
  -21.2660   13.3120   28.8040 H   0  0  0  0  0  0  0  0  0  0  0  0
  -24.4810   11.7090   26.3790 H   0  0  0  0  0  0  0  0  0  0  0  0
  -22.7560   11.3200   24.4690 H   0  0  0  0  0  0  0  0  0  0  0  0
  -19.1670   12.8490   28.2810 H   0  0  0  0  0  0  0  0  0  0  0  0
  -18.7510   12.0510   26.8030 H   0  0  0  0  0  0  0  0  0  0  0  0
  -18.4100   13.1460   24.5760 H   0  0  0  0  0  0  0  0  0  0  0  0
  -18.1560   17.1330   25.8440 H   0  0  0  0  0  0  0  0  0  0  0  0
  2  1  1  6
  2  3  1  0
  2  4  1  0
  2  5  1  0
  5  6  2  0
  5  7  1  0
  6  8  1  0
  7  9  2  0
  8 10  1  0
  8 11  1  0
  9 11  1  0
 10 12  1  0
 11 13  2  0
 12 14  2  0
 12 15  1  0
 14 16  1  0
 15 17  1  0
 16 17  2  0
  1 18  1  0
  1 19  1  0
  1 20  1  0
  3 21  1  0
  3 22  1  0
  3 23  1  0
  4 24  1  0
  4 25  1  0
  4 26  1  0
  6 27  1  0
  7 28  1  0
  9 29  1  0
 10 30  1  0
 10 31  1  0
 14 32  1  0
 17 33  1  0
M  END
$$$$
PV-006133632842
     RDKit          3D

 26 27  0  0  0  0  0  0  0  0999 V2000
  -18.4420   15.2000   24.5310 C   0  0  0  0  0  0  0  0  0  0  0  0
  -18.4940   14.1030   25.2470 C   0  0  0  0  0  0  0  0  0  0  0  0
  -18.5360   14.1030   26.7320 C   0  0  0  0  0  0  0  0  0  0  0  0
  -18.8590   12.9050   27.2950 C   0  0  0  0  0  0  0  0  0  0  0  0
  -20.0520   12.4190   26.6430 N   0  0  0  0  0  0  0  0  0  0  0  0
  -20.1070   11.5840   25.4320 C   0  0  0  0  0  0  0  0  0  0  0  0
  -21.3580   12.6920   27.0050 C   0  0  0  0  0  0  0  0  0  0  0  0
  -21.4690   11.3000   25.3170 C   0  0  0  0  0  0  0  0  0  0  0  0
  -22.2230   12.0020   26.2090 C   0  0  0  0  0  0  0  0  0  0  0  0
  -21.9310   13.5310   28.0270 C   0  0  0  0  0  0  0  0  0  0  0  0
  -23.7200   12.0360   26.3190 C   0  0  0  0  0  0  0  0  0  0  0  0
  -23.3040   13.6260   28.2040 C   0  0  0  0  0  0  0  0  0  0  0  0
  -24.2640   12.9380   27.4300 C   0  0  0  0  0  0  0  0  0  0  0  0
  -18.2330   16.1580   24.9890 H   0  0  0  0  0  0  0  0  0  0  0  0
  -17.6040   14.4980   27.1310 H   0  0  0  0  0  0  0  0  0  0  0  0
  -19.3100   14.8210   27.0330 H   0  0  0  0  0  0  0  0  0  0  0  0
  -19.1330   13.0920   28.3380 H   0  0  0  0  0  0  0  0  0  0  0  0
  -18.1130   12.1180   27.3430 H   0  0  0  0  0  0  0  0  0  0  0  0
  -19.3770   10.7830   25.5010 H   0  0  0  0  0  0  0  0  0  0  0  0
  -19.8180   12.1890   24.5620 H   0  0  0  0  0  0  0  0  0  0  0  0
  -21.7950   11.5180   24.2990 H   0  0  0  0  0  0  0  0  0  0  0  0
  -21.6390   10.2360   25.5020 H   0  0  0  0  0  0  0  0  0  0  0  0
  -21.1850   14.0500   28.6070 H   0  0  0  0  0  0  0  0  0  0  0  0
  -24.3680   11.4690   25.6630 H   0  0  0  0  0  0  0  0  0  0  0  0
  -23.7430   14.2620   28.9820 H   0  0  0  0  0  0  0  0  0  0  0  0
  -25.3260   13.0470   27.6120 H   0  0  0  0  0  0  0  0  0  0  0  0
  1  2  3  0
  2  3  1  0
  3  4  1  0
  4  5  1  0
  5  6  1  0
  5  7  1  0
  6  8  1  0
  7  9  2  0
  8  9  1  0
  7 10  1  0
  9 11  1  0
 10 12  2  0
 11 13  2  0
 12 13  1  0
  1 14  1  0
  3 15  1  0
  3 16  1  0
  4 17  1  0
  4 18  1  0
  6 19  1  0
  6 20  1  0
  8 21  1  0
  8 22  1  0
 10 23  1  0
 11 24  1  0
 12 25  1  0
 13 26  1  0
M  END
$$$$
PV-005319971059
     RDKit          3D

 28 29  0  0  0  0  0  0  0  0999 V2000
  -17.2200   11.1410   23.1940 C   0  0  0  0  0  0  0  0  0  0  0  0
  -18.1460   11.3060   24.1310 C   0  0  0  0  0  0  0  0  0  0  0  0
  -19.0900   12.4510   24.1570 C   0  0  0  0  0  0  0  0  0  0  0  0
  -19.6210   12.5880   25.4690 N   0  0  0  0  0  0  0  0  0  0  0  0
  -18.6830   12.5220   26.5290 C   0  0  0  0  0  0  0  0  0  0  0  0
  -20.9350   12.3670   25.7860 C   0  0  0  0  0  0  0  0  0  0  0  0
  -19.0430   13.5500   27.5280 C   0  0  0  0  0  0  0  0  0  0  0  0
  -21.4240   12.7360   27.0320 C   0  0  0  0  0  0  0  0  0  0  0  0
  -21.8140   11.7900   24.9020 C   0  0  0  0  0  0  0  0  0  0  0  0
  -20.4800   13.3630   27.9950 C   0  0  0  0  0  0  0  0  0  0  0  0
  -23.1340   11.5790   25.2110 C   0  0  0  0  0  0  0  0  0  0  0  0
  -22.7770   12.5210   27.3650 C   0  0  0  0  0  0  0  0  0  0  0  0
  -23.6320   11.9430   26.4460 C   0  0  0  0  0  0  0  0  0  0  0  0
  -23.5200   12.9960   29.0490 Br  0  0  0  0  0  0  0  0  0  0  0  0
  -16.5620   10.2940   23.2100 H   0  0  0  0  0  0  0  0  0  0  0  0
  -17.0970   11.8500   22.3820 H   0  0  0  0  0  0  0  0  0  0  0  0
  -18.2390   10.5720   24.9180 H   0  0  0  0  0  0  0  0  0  0  0  0
  -19.9050   12.3380   23.4450 H   0  0  0  0  0  0  0  0  0  0  0  0
  -18.5560   13.3620   23.8650 H   0  0  0  0  0  0  0  0  0  0  0  0
  -18.6610   11.5180   26.9700 H   0  0  0  0  0  0  0  0  0  0  0  0
  -17.6930   12.7330   26.1620 H   0  0  0  0  0  0  0  0  0  0  0  0
  -18.8930   14.5580   27.1300 H   0  0  0  0  0  0  0  0  0  0  0  0
  -18.3700   13.4140   28.3680 H   0  0  0  0  0  0  0  0  0  0  0  0
  -21.4950   11.4880   23.9300 H   0  0  0  0  0  0  0  0  0  0  0  0
  -20.4790   12.7480   28.8820 H   0  0  0  0  0  0  0  0  0  0  0  0
  -20.8490   14.3360   28.2790 H   0  0  0  0  0  0  0  0  0  0  0  0
  -23.7660   11.1310   24.4790 H   0  0  0  0  0  0  0  0  0  0  0  0
  -24.6790   11.7730   26.6790 H   0  0  0  0  0  0  0  0  0  0  0  0
  1  2  2  3
  2  3  1  0
  3  4  1  0
  4  5  1  0
  4  6  1  0
  5  7  1  0
  6  8  2  0
  6  9  1  0
  7 10  1  0
  8 10  1  0
  9 11  2  0
  8 12  1  0
 11 13  1  0
 12 13  2  0
 12 14  1  0
  1 15  1  0
  1 16  1  0
  2 17  1  0
  3 18  1  0
  3 19  1  0
  5 20  1  0
  5 21  1  0
  7 22  1  0
  7 23  1  0
  9 24  1  0
 10 25  1  0
 10 26  1  0
 11 27  1  0
 13 28  1  0
M  END
$$$$
Z2832701125
     RDKit          3D

 34 35  0  0  0  0  0  0  0  0999 V2000
  -17.9150   12.5610   23.3500 C   0  0  0  0  0  0  0  0  0  0  0  0
  -17.7140   13.8840   23.4720 C   0  0  2  0  0  0  0  0  0  0  0  0
  -18.7050   14.8350   23.0490 C   0  0  0  0  0  0  0  0  0  0  0  0
  -16.3060   14.1140   22.8870 C   0  0  0  0  0  0  0  0  0  0  0  0
  -17.9430   14.3610   24.8680 C   0  0  0  0  0  0  0  0  0  0  0  0
  -18.7830   13.5430   25.6260 C   0  0  0  0  0  0  0  0  0  0  0  0
  -17.4470   15.5840   25.5310 C   0  0  0  0  0  0  0  0  0  0  0  0
  -19.0600   13.9420   26.8450 N   0  0  0  0  0  0  0  0  0  0  0  0
  -18.0770   16.0690   26.5810 C   0  0  0  0  0  0  0  0  0  0  0  0
  -19.6250   12.8910   27.5980 C   0  0  0  0  0  0  0  0  0  0  0  0
  -19.2470   15.3200   27.0240 C   0  0  0  0  0  0  0  0  0  0  0  0
  -20.8730   12.5930   27.0990 C   0  0  0  0  0  0  0  0  0  0  0  0
  -20.3620   16.0090   27.5430 O   0  0  0  0  0  0  0  0  0  0  0  0
  -21.1340   12.0560   25.7350 C   0  0  0  0  0  0  0  0  0  0  0  0
  -22.3080   12.7820   27.9990 S   0  0  0  0  0  0  0  0  0  0  0  0
  -22.6060   11.8330   25.5650 C   0  0  0  0  0  0  0  0  0  0  0  0
  -23.2870   12.1910   26.7150 C   0  0  0  0  0  0  0  0  0  0  0  0
  -17.6130   12.1450   22.3940 H   0  0  0  0  0  0  0  0  0  0  0  0
  -17.5850   11.9500   24.1820 H   0  0  0  0  0  0  0  0  0  0  0  0
  -19.0000   12.4090   23.3360 H   0  0  0  0  0  0  0  0  0  0  0  0
  -19.6220   14.3640   22.7100 H   0  0  0  0  0  0  0  0  0  0  0  0
  -18.2820   15.4310   22.2720 H   0  0  0  0  0  0  0  0  0  0  0  0
  -18.9710   15.5110   23.8640 H   0  0  0  0  0  0  0  0  0  0  0  0
  -15.7830   14.9570   23.3550 H   0  0  0  0  0  0  0  0  0  0  0  0
  -16.3350   14.2700   21.8150 H   0  0  0  0  0  0  0  0  0  0  0  0
  -15.6810   13.2270   23.0250 H   0  0  0  0  0  0  0  0  0  0  0  0
  -19.2250   12.6220   25.2790 H   0  0  0  0  0  0  0  0  0  0  0  0
  -16.5610   16.0800   25.1840 H   0  0  0  0  0  0  0  0  0  0  0  0
  -17.7830   16.9540   27.1300 H   0  0  0  0  0  0  0  0  0  0  0  0
  -18.9830   12.0110   27.4820 H   0  0  0  0  0  0  0  0  0  0  0  0
  -19.6240   13.1030   28.6450 H   0  0  0  0  0  0  0  0  0  0  0  0
  -20.2860   11.8930   25.0590 H   0  0  0  0  0  0  0  0  0  0  0  0
  -23.1200   11.4450   24.6880 H   0  0  0  0  0  0  0  0  0  0  0  0
  -24.3600   12.1080   26.8020 H   0  0  0  0  0  0  0  0  0  0  0  0
  2  1  1  1
  2  3  1  0
  2  4  1  0
  2  5  1  0
  5  6  2  0
  5  7  1  0
  6  8  1  0
  7  9  2  0
  8 10  1  0
  8 11  1  0
  9 11  1  0
 10 12  1  0
 11 13  2  0
 12 14  2  0
 12 15  1  0
 14 16  1  0
 15 17  1  0
 16 17  2  0
  1 18  1  0
  1 19  1  0
  1 20  1  0
  3 21  1  0
  3 22  1  0
  3 23  1  0
  4 24  1  0
  4 25  1  0
  4 26  1  0
  6 27  1  0
  7 28  1  0
  9 29  1  0
 10 30  1  0
 10 31  1  0
 14 32  1  0
 16 33  1  0
 17 34  1  0
M  END
$$$$
PV-002119214916
     RDKit          3D

 30 31  0  0  0  0  0  0  0  0999 V2000
  -23.1940   12.7540   28.6580 C   0  0  0  0  0  0  0  0  0  0  0  0
  -22.7550   12.4620   27.4250 C   0  0  0  0  0  0  0  0  0  0  0  0
  -23.6040   11.8570   26.3670 C   0  0  0  0  0  0  0  0  0  0  0  0
  -21.4150   12.7200   27.0380 C   0  0  0  0  0  0  0  0  0  0  0  0
  -23.0960   11.5780   25.1250 C   0  0  0  0  0  0  0  0  0  0  0  0
  -20.9260   12.4350   25.7500 C   0  0  0  0  0  0  0  0  0  0  0  0
  -20.4570   13.3140   28.0020 C   0  0  0  0  0  0  0  0  0  0  0  0
  -21.7730   11.8720   24.8440 C   0  0  0  0  0  0  0  0  0  0  0  0
  -19.0250   13.0280   27.6230 C   0  0  0  0  0  0  0  0  0  0  0  0
  -19.6170   12.7330   25.4060 N   0  0  0  0  0  0  0  0  0  0  0  0
  -18.8350   13.5740   26.2610 C   0  0  0  0  0  0  0  0  0  0  0  0
  -18.9960   12.3140   24.1840 C   0  0  0  0  0  0  0  0  0  0  0  0
  -18.1330   11.1390   24.5200 C   0  0  0  0  0  0  0  0  0  0  0  0
  -17.3740   10.7920   23.4550 F   0  0  0  0  0  0  0  0  0  0  0  0
  -23.2800   11.9150   29.3410 H   0  0  0  0  0  0  0  0  0  0  0  0
  -22.6970   13.5970   29.1310 H   0  0  0  0  0  0  0  0  0  0  0  0
  -24.2180   13.1140   28.5210 H   0  0  0  0  0  0  0  0  0  0  0  0
  -24.6380   11.6610   26.6610 H   0  0  0  0  0  0  0  0  0  0  0  0
  -23.7030   11.1380   24.3630 H   0  0  0  0  0  0  0  0  0  0  0  0
  -20.5770   14.3850   28.0580 H   0  0  0  0  0  0  0  0  0  0  0  0
  -20.6840   12.8900   28.9690 H   0  0  0  0  0  0  0  0  0  0  0  0
  -21.4330   11.6420   23.8600 H   0  0  0  0  0  0  0  0  0  0  0  0
  -18.3220   13.4730   28.3100 H   0  0  0  0  0  0  0  0  0  0  0  0
  -18.8380   11.9520   27.6280 H   0  0  0  0  0  0  0  0  0  0  0  0
  -19.1800   14.6140   26.2270 H   0  0  0  0  0  0  0  0  0  0  0  0
  -17.7980   13.5530   25.9610 H   0  0  0  0  0  0  0  0  0  0  0  0
  -18.3600   13.1080   23.7720 H   0  0  0  0  0  0  0  0  0  0  0  0
  -19.7190   12.0930   23.4080 H   0  0  0  0  0  0  0  0  0  0  0  0
  -17.4770   11.4260   25.3180 H   0  0  0  0  0  0  0  0  0  0  0  0
  -18.7020   10.2640   24.8470 H   0  0  0  0  0  0  0  0  0  0  0  0
  1  2  1  0
  2  3  2  0
  2  4  1  0
  3  5  1  0
  4  6  2  0
  4  7  1  0
  5  8  2  0
  6  8  1  0
  7  9  1  0
  6 10  1  0
  9 11  1  0
 10 11  1  0
 10 12  1  0
 12 13  1  0
 13 14  1  0
  1 15  1  0
  1 16  1  0
  1 17  1  0
  3 18  1  0
  5 19  1  0
  7 20  1  0
  7 21  1  0
  8 22  1  0
  9 23  1  0
  9 24  1  0
 11 25  1  0
 11 26  1  0
 12 27  1  0
 12 28  1  0
 13 29  1  0
 13 30  1  0
M  END
$$$$
Z2613920890
     RDKit          3D

 33 34  0  0  0  0  0  0  0  0999 V2000
  -25.1150   13.0310   28.5000 C   0  0  0  0  0  0  0  0  0  0  0  0
  -23.8630   13.2380   28.8860 C   0  0  1  0  0  0  0  0  0  0  0  0
  -23.4190   14.6220   29.2410 C   0  0  0  0  0  0  0  0  0  0  0  0
  -23.6400   12.3920   30.1710 C   0  0  0  0  0  0  0  0  0  0  0  0
  -22.9210   12.7400   27.7800 C   0  0  0  0  0  0  0  0  0  0  0  0
  -21.4700   12.9340   27.8130 C   0  0  0  0  0  0  0  0  0  0  0  0
  -23.4230   12.0340   26.6120 C   0  0  0  0  0  0  0  0  0  0  0  0
  -20.6610   12.4630   26.8040 N   0  0  0  0  0  0  0  0  0  0  0  0
  -22.6150   11.7410   25.5810 C   0  0  0  0  0  0  0  0  0  0  0  0
  -19.2390   12.6340   26.9490 C   0  0  0  0  0  0  0  0  0  0  0  0
  -21.1800   12.1090   25.5490 C   0  0  0  0  0  0  0  0  0  0  0  0
  -18.9050   13.7950   26.3030 C   0  0  0  0  0  0  0  0  0  0  0  0
  -20.5620   12.0910   24.4850 O   0  0  0  0  0  0  0  0  0  0  0  0
  -18.3030   13.8580   24.9480 C   0  0  0  0  0  0  0  0  0  0  0  0
  -19.1070   15.3730   26.8930 S   0  0  0  0  0  0  0  0  0  0  0  0
  -18.0540   15.1320   24.5520 N   0  0  0  0  0  0  0  0  0  0  0  0
  -18.4220   15.9960   25.4750 C   0  0  0  0  0  0  0  0  0  0  0  0
  -25.7070   13.9290   28.3660 H   0  0  0  0  0  0  0  0  0  0  0  0
  -25.2240   12.3570   27.6610 H   0  0  0  0  0  0  0  0  0  0  0  0
  -25.6080   12.5000   29.3170 H   0  0  0  0  0  0  0  0  0  0  0  0
  -22.4090   14.7590   28.8410 H   0  0  0  0  0  0  0  0  0  0  0  0
  -24.0500   15.4030   28.8000 H   0  0  0  0  0  0  0  0  0  0  0  0
  -23.3940   14.7800   30.3240 H   0  0  0  0  0  0  0  0  0  0  0  0
  -23.0960   11.4650   29.9430 H   0  0  0  0  0  0  0  0  0  0  0  0
  -23.0470   12.9300   30.9160 H   0  0  0  0  0  0  0  0  0  0  0  0
  -24.5870   12.1030   30.6380 H   0  0  0  0  0  0  0  0  0  0  0  0
  -20.9670   13.4400   28.6070 H   0  0  0  0  0  0  0  0  0  0  0  0
  -24.4650   11.7360   26.5650 H   0  0  0  0  0  0  0  0  0  0  0  0
  -22.9100   11.2110   24.6660 H   0  0  0  0  0  0  0  0  0  0  0  0
  -18.9670   12.7050   28.0110 H   0  0  0  0  0  0  0  0  0  0  0  0
  -18.7160   11.7610   26.5450 H   0  0  0  0  0  0  0  0  0  0  0  0
  -18.0610   13.0150   24.3100 H   0  0  0  0  0  0  0  0  0  0  0  0
  -18.2970   17.0590   25.3430 H   0  0  0  0  0  0  0  0  0  0  0  0
  2  1  1  6
  2  3  1  0
  2  4  1  0
  2  5  1  0
  5  6  2  0
  5  7  1  0
  6  8  1  0
  7  9  2  0
  8 10  1  0
  8 11  1  0
  9 11  1  0
 10 12  1  0
 11 13  2  0
 12 14  2  0
 12 15  1  0
 14 16  1  0
 15 17  1  0
 16 17  2  0
  1 18  1  0
  1 19  1  0
  1 20  1  0
  3 21  1  0
  3 22  1  0
  3 23  1  0
  4 24  1  0
  4 25  1  0
  4 26  1  0
  6 27  1  0
  7 28  1  0
  9 29  1  0
 10 30  1  0
 10 31  1  0
 14 32  1  0
 17 33  1  0
M  END
$$$$
PV-003850534502
     RDKit          3D

 37 38  0  0  0  0  0  0  0  0999 V2000
  -23.5230   14.4590   29.3100 C   0  0  0  0  0  0  0  0  0  0  0  0
  -23.6360   13.1480   29.0640 C   0  0  1  0  0  0  0  0  0  0  0  0
  -23.3380   12.1110   30.1080 C   0  0  0  0  0  0  0  0  0  0  0  0
  -25.1150   13.0170   28.6610 C   0  0  0  0  0  0  0  0  0  0  0  0
  -22.8100   12.7840   27.8270 C   0  0  0  0  0  0  0  0  0  0  0  0
  -23.3230   12.0020   26.7890 C   0  0  0  0  0  0  0  0  0  0  0  0
  -21.4870   13.2630   27.7270 C   0  0  0  0  0  0  0  0  0  0  0  0
  -22.4900   11.6680   25.5640 C   0  0  0  0  0  0  0  0  0  0  0  0
  -20.6810   12.9940   26.6270 C   0  0  0  0  0  0  0  0  0  0  0  0
  -21.2050   12.1580   25.4880 C   0  0  0  0  0  0  0  0  0  0  0  0
  -19.2520   13.4630   26.3570 C   0  0  0  0  0  0  0  0  0  0  0  0
  -20.4070   11.9160   24.4140 O   0  0  0  0  0  0  0  0  0  0  0  0
  -18.8830   14.7570   26.3360 C   0  0  0  0  0  0  0  0  0  0  0  0
  -17.5900   15.3870   26.0270 C   0  0  0  0  0  0  0  0  0  0  0  0
  -19.7660   15.8970   26.6300 C   0  0  0  0  0  0  0  0  0  0  0  0
  -17.8270   16.8360   26.2390 C   0  0  0  0  0  0  0  0  0  0  0  0
  -18.9210   16.9100   27.1370 O   0  0  0  0  0  0  0  0  0  0  0  0
  -24.4060   15.0610   29.1340 H   0  0  0  0  0  0  0  0  0  0  0  0
  -22.6400   14.9220   28.8900 H   0  0  0  0  0  0  0  0  0  0  0  0
  -23.3740   14.5680   30.3890 H   0  0  0  0  0  0  0  0  0  0  0  0
  -24.2190   11.8420   30.7010 H   0  0  0  0  0  0  0  0  0  0  0  0
  -22.5880   12.5110   30.7960 H   0  0  0  0  0  0  0  0  0  0  0  0
  -22.9320   11.1990   29.6610 H   0  0  0  0  0  0  0  0  0  0  0  0
  -25.7260   12.5560   29.4420 H   0  0  0  0  0  0  0  0  0  0  0  0
  -25.2260   12.4270   27.7470 H   0  0  0  0  0  0  0  0  0  0  0  0
  -25.5560   14.0010   28.4600 H   0  0  0  0  0  0  0  0  0  0  0  0
  -24.3340   11.6090   26.8200 H   0  0  0  0  0  0  0  0  0  0  0  0
  -21.0810   13.8660   28.5180 H   0  0  0  0  0  0  0  0  0  0  0  0
  -22.9180   11.0580   24.7730 H   0  0  0  0  0  0  0  0  0  0  0  0
  -18.5350   12.6740   26.1400 H   0  0  0  0  0  0  0  0  0  0  0  0
  -19.7400   12.6210   24.3670 H   0  0  0  0  0  0  0  0  0  0  0  0
  -16.7850   15.1180   26.6630 H   0  0  0  0  0  0  0  0  0  0  0  0
  -17.3310   15.2040   24.9760 H   0  0  0  0  0  0  0  0  0  0  0  0
  -20.5170   15.6270   27.3660 H   0  0  0  0  0  0  0  0  0  0  0  0
  -20.2150   16.3230   25.7520 H   0  0  0  0  0  0  0  0  0  0  0  0
  -18.0580   17.3700   25.3300 H   0  0  0  0  0  0  0  0  0  0  0  0
  -16.9610   17.3180   26.7080 H   0  0  0  0  0  0  0  0  0  0  0  0
  2  1  1  1
  2  3  1  0
  2  4  1  0
  2  5  1  0
  5  6  2  0
  5  7  1  0
  6  8  1  0
  7  9  2  0
  8 10  2  0
  9 10  1  0
  9 11  1  0
 10 12  1  0
 11 13  2  3
 13 14  1  0
 13 15  1  0
 14 16  1  0
 15 17  1  0
 16 17  1  0
  1 18  1  0
  1 19  1  0
  1 20  1  0
  3 21  1  0
  3 22  1  0
  3 23  1  0
  4 24  1  0
  4 25  1  0
  4 26  1  0
  6 27  1  0
  7 28  1  0
  8 29  1  0
 11 30  1  0
 12 31  1  0
 14 32  1  0
 14 33  1  0
 15 34  1  0
 15 35  1  0
 16 36  1  0
 16 37  1  0
M  END
$$$$
Z883547008
     RDKit          3D

 25 26  0  0  0  0  0  0  0  0999 V2000
  -18.3630   14.9460   25.0610 C   0  0  0  0  0  0  0  0  0  0  0  0
  -18.3590   14.3960   26.2800 C   0  0  0  0  0  0  0  0  0  0  0  0
  -18.6570   12.9560   26.5390 C   0  0  0  0  0  0  0  0  0  0  0  0
  -19.9700   12.6740   26.0300 N   0  0  0  0  0  0  0  0  0  0  0  0
  -20.2320   11.6490   25.0530 C   0  0  0  0  0  0  0  0  0  0  0  0
  -21.1380   12.8920   26.7150 C   0  0  0  0  0  0  0  0  0  0  0  0
  -21.7150   11.2320   25.1750 C   0  0  0  0  0  0  0  0  0  0  0  0
  -22.1950   12.0960   26.2780 C   0  0  0  0  0  0  0  0  0  0  0  0
  -21.3200   13.7730   27.7200 C   0  0  0  0  0  0  0  0  0  0  0  0
  -23.4590   12.1740   26.8470 C   0  0  0  0  0  0  0  0  0  0  0  0
  -22.5610   13.8830   28.3160 C   0  0  0  0  0  0  0  0  0  0  0  0
  -23.6140   13.0930   27.8840 C   0  0  0  0  0  0  0  0  0  0  0  0
  -25.2360   13.3480   28.7840 Br  0  0  0  0  0  0  0  0  0  0  0  0
  -18.5850   14.3760   24.1660 H   0  0  0  0  0  0  0  0  0  0  0  0
  -18.1440   15.9990   24.9450 H   0  0  0  0  0  0  0  0  0  0  0  0
  -18.1310   15.0140   27.1410 H   0  0  0  0  0  0  0  0  0  0  0  0
  -17.9300   12.3040   26.0420 H   0  0  0  0  0  0  0  0  0  0  0  0
  -18.5850   12.7410   27.6130 H   0  0  0  0  0  0  0  0  0  0  0  0
  -19.5890   10.7820   25.2480 H   0  0  0  0  0  0  0  0  0  0  0  0
  -20.0060   12.0150   24.0440 H   0  0  0  0  0  0  0  0  0  0  0  0
  -22.2600   11.4050   24.2420 H   0  0  0  0  0  0  0  0  0  0  0  0
  -21.8060   10.1810   25.4660 H   0  0  0  0  0  0  0  0  0  0  0  0
  -20.5050   14.3840   28.0500 H   0  0  0  0  0  0  0  0  0  0  0  0
  -24.2760   11.5530   26.4990 H   0  0  0  0  0  0  0  0  0  0  0  0
  -22.7020   14.5940   29.1240 H   0  0  0  0  0  0  0  0  0  0  0  0
  1  2  2  3
  2  3  1  0
  3  4  1  0
  4  5  1  0
  4  6  1  0
  5  7  1  0
  6  8  2  0
  7  8  1  0
  6  9  1  0
  8 10  1  0
  9 11  2  0
 10 12  2  0
 11 12  1  0
 12 13  1  0
  1 14  1  0
  1 15  1  0
  2 16  1  0
  3 17  1  0
  3 18  1  0
  5 19  1  0
  5 20  1  0
  7 21  1  0
  7 22  1  0
  9 23  1  0
 10 24  1  0
 11 25  1  0
M  END
